Circuit: * C:\Users\fergal\Desktop\Circuit Theory\Lab 2\3rd_order_Theory_fc_6_5_k_5.asc

Ignoring empty pin current: Ix(u1:1)
Ignoring empty pin current: Ix(u1:2)
Ignoring empty pin current: Ix(u2:1)
Ignoring empty pin current: Ix(u2:2)

Date: Tue Nov 24 16:36:49 2015
Total elapsed time: 0.047 seconds.

tnom = 27
temp = 27
method = trap
totiter = 0
traniter = 0
tranpoints = 0
accept = 0
rejected = 0
matrix size = 9
fillins = 4
solver = Normal

